<?xml version="1.0" encoding="UTF-8"?>

<!-- generated on 2026-03-28T21:32:17.262055+01:00 by Eclipse SUMO duarouter 1.26.0
<duarouterConfiguration xmlns:xsi="http://www.w3.org/2001/XMLSchema-instance" xsi:noNamespaceSchemaLocation="http://sumo.dlr.de/xsd/duarouterConfiguration.xsd">

    <input>
        <net-file value="input.net.xml"/>
        <route-files value="input.trips.xml"/>
    </input>

    <output>
        <output-file value="output_shortest_path.routes.xml"/>
    </output>

</duarouterConfiguration>
-->

<routes xmlns:xsi="http://www.w3.org/2001/XMLSchema-instance" xsi:noNamespaceSchemaLocation="http://sumo.dlr.de/xsd/routes_file.xsd">
    <vehicle id="agent_01" depart="0.00">
        <route edges="E11 E9 E10 E12"/>
    </vehicle>
    <vehicle id="agent_02" depart="0.00">
        <route edges="E11 E5 E6 E12"/>
    </vehicle>
    <vehicle id="agent_03" depart="0.00">
        <route edges="E7 E8"/>
    </vehicle>
    <vehicle id="f_0.0" depart="0.00">
        <route edges="E11 E5 E6 E12"/>
    </vehicle>
    <vehicle id="f_1.0" depart="0.00">
        <route edges="E7 E8"/>
    </vehicle>
    <vehicle id="f_0.1" depart="3.00">
        <route edges="E11 E5 E6 E12"/>
    </vehicle>
    <vehicle id="f_0.2" depart="6.00">
        <route edges="E11 E5 E6 E12"/>
    </vehicle>
    <vehicle id="f_1.1" depart="6.00">
        <route edges="E7 E8"/>
    </vehicle>
    <vehicle id="f_0.3" depart="9.00">
        <route edges="E11 E5 E6 E12"/>
    </vehicle>
    <vehicle id="f_0.4" depart="12.00">
        <route edges="E11 E5 E6 E12"/>
    </vehicle>
    <vehicle id="f_1.2" depart="12.00">
        <route edges="E7 E8"/>
    </vehicle>
    <vehicle id="f_0.5" depart="15.00">
        <route edges="E11 E5 E6 E12"/>
    </vehicle>
    <vehicle id="f_0.6" depart="18.00">
        <route edges="E11 E5 E6 E12"/>
    </vehicle>
    <vehicle id="f_1.3" depart="18.00">
        <route edges="E7 E8"/>
    </vehicle>
    <vehicle id="f_0.7" depart="21.00">
        <route edges="E11 E5 E6 E12"/>
    </vehicle>
    <vehicle id="f_0.8" depart="24.00">
        <route edges="E11 E5 E6 E12"/>
    </vehicle>
    <vehicle id="f_1.4" depart="24.00">
        <route edges="E7 E8"/>
    </vehicle>
    <vehicle id="f_0.9" depart="27.00">
        <route edges="E11 E5 E6 E12"/>
    </vehicle>
    <vehicle id="f_0.10" depart="30.00">
        <route edges="E11 E5 E6 E12"/>
    </vehicle>
    <vehicle id="f_1.5" depart="30.00">
        <route edges="E7 E8"/>
    </vehicle>
    <vehicle id="f_0.11" depart="33.00">
        <route edges="E11 E5 E6 E12"/>
    </vehicle>
    <vehicle id="f_0.12" depart="36.00">
        <route edges="E11 E5 E6 E12"/>
    </vehicle>
    <vehicle id="f_1.6" depart="36.00">
        <route edges="E7 E8"/>
    </vehicle>
    <vehicle id="f_0.13" depart="39.00">
        <route edges="E11 E5 E6 E12"/>
    </vehicle>
    <vehicle id="f_0.14" depart="42.00">
        <route edges="E11 E5 E6 E12"/>
    </vehicle>
    <vehicle id="f_1.7" depart="42.00">
        <route edges="E7 E8"/>
    </vehicle>
    <vehicle id="f_0.15" depart="45.00">
        <route edges="E11 E5 E6 E12"/>
    </vehicle>
    <vehicle id="f_0.16" depart="48.00">
        <route edges="E11 E5 E6 E12"/>
    </vehicle>
    <vehicle id="f_1.8" depart="48.00">
        <route edges="E7 E8"/>
    </vehicle>
</routes>
