<?xml version="1.0" encoding="UTF-8"?>

<!-- generated on 2026-03-26T19:42:50.306199+01:00 by Eclipse SUMO duarouter 1.26.0
<duarouterConfiguration xmlns:xsi="http://www.w3.org/2001/XMLSchema-instance" xsi:noNamespaceSchemaLocation="http://sumo.dlr.de/xsd/duarouterConfiguration.xsd">

    <input>
        <net-file value="input.net.xml"/>
        <route-files value="input.trips.xml"/>
    </input>

    <output>
        <output-file value="output_shortest_path.routes.xml"/>
        <write-costs value="true"/>
    </output>

</duarouterConfiguration>
-->

<routes xmlns:xsi="http://www.w3.org/2001/XMLSchema-instance" xsi:noNamespaceSchemaLocation="http://sumo.dlr.de/xsd/routes_file.xsd">
    <vehicle id="f_0.0" depart="0.00">
        <route cost="23.75" edges="E11 E5 E6 E12"/>
    </vehicle>
    <vehicle id="f_1.0" depart="0.00">
        <route cost="6.76" edges="E7 E8"/>
    </vehicle>
    <vehicle id="f_0.1" depart="2.00">
        <route cost="23.75" edges="E11 E5 E6 E12"/>
    </vehicle>
    <vehicle id="f_0.2" depart="4.00">
        <route cost="23.75" edges="E11 E5 E6 E12"/>
    </vehicle>
    <vehicle id="f_0.3" depart="6.00">
        <route cost="23.75" edges="E11 E5 E6 E12"/>
    </vehicle>
    <vehicle id="f_1.1" depart="6.00">
        <route cost="6.76" edges="E7 E8"/>
    </vehicle>
    <vehicle id="f_0.4" depart="8.00">
        <route cost="23.75" edges="E11 E5 E6 E12"/>
    </vehicle>
    <vehicle id="f_0.5" depart="10.00">
        <route cost="23.75" edges="E11 E5 E6 E12"/>
    </vehicle>
    <vehicle id="f_0.6" depart="12.00">
        <route cost="23.75" edges="E11 E5 E6 E12"/>
    </vehicle>
    <vehicle id="f_1.2" depart="12.00">
        <route cost="6.76" edges="E7 E8"/>
    </vehicle>
    <vehicle id="f_0.7" depart="14.00">
        <route cost="23.75" edges="E11 E5 E6 E12"/>
    </vehicle>
    <vehicle id="f_0.8" depart="16.00">
        <route cost="23.75" edges="E11 E5 E6 E12"/>
    </vehicle>
    <vehicle id="f_0.9" depart="18.00">
        <route cost="23.75" edges="E11 E5 E6 E12"/>
    </vehicle>
    <vehicle id="f_1.3" depart="18.00">
        <route cost="6.76" edges="E7 E8"/>
    </vehicle>
    <vehicle id="f_0.10" depart="20.00">
        <route cost="23.75" edges="E11 E5 E6 E12"/>
    </vehicle>
    <vehicle id="f_0.11" depart="22.00">
        <route cost="23.75" edges="E11 E5 E6 E12"/>
    </vehicle>
    <vehicle id="f_0.12" depart="24.00">
        <route cost="23.75" edges="E11 E5 E6 E12"/>
    </vehicle>
    <vehicle id="f_1.4" depart="24.00">
        <route cost="6.76" edges="E7 E8"/>
    </vehicle>
    <vehicle id="f_0.13" depart="26.00">
        <route cost="23.75" edges="E11 E5 E6 E12"/>
    </vehicle>
    <vehicle id="f_0.14" depart="28.00">
        <route cost="23.75" edges="E11 E5 E6 E12"/>
    </vehicle>
</routes>
